1h00
  PyMOL2.6          3D                             0

 30 32  0  0  0  0  0  0  0  0999 V2000
    0.3260   33.1000    7.8560 C   0  0  0  0  0  0  0  0  0  0  0  0
   -0.5690   32.5630    8.6890 N   0  0  0  0  0  0  0  0  0  0  0  0
   -0.4010   31.2770    9.0660 C   0  0  0  0  0  0  0  0  0  0  0  0
    0.7130   30.5170    8.5790 C   0  0  0  0  0  0  0  0  0  0  0  0
    1.6140   31.1970    7.6890 C   0  0  0  0  0  0  0  0  0  0  0  0
    1.3960   32.4840    7.3450 N   0  0  0  0  0  0  0  0  0  0  0  0
   -1.3980   30.7320    9.9800 N   0  0  0  0  0  0  0  0  0  0  0  0
   -1.4540   29.6170   10.9470 C   0  0  0  0  0  0  0  0  0  0  0  0
   -2.7310   29.0150   11.1770 C   0  0  0  0  0  0  0  0  0  0  0  0
   -2.8640   27.9370   12.0910 C   0  0  0  0  0  0  0  0  0  0  0  0
   -1.7340   27.4480   12.7920 C   0  0  0  0  0  0  0  0  0  0  0  0
   -0.4620   28.0280   12.5840 C   0  0  0  0  0  0  0  0  0  0  0  0
   -0.3090   29.1050   11.6740 C   0  0  0  0  0  0  0  0  0  0  0  0
    2.7940   30.5570    7.1260 N   0  0  0  0  0  0  0  0  0  0  0  0
    3.4120   29.2380    7.2190 C   0  0  0  0  0  0  0  0  0  0  0  0
    3.6480   28.5750    8.4680 C   0  0  0  0  0  0  0  0  0  0  0  0
    4.2480   27.2990    8.5010 C   0  0  0  0  0  0  0  0  0  0  0  0
    4.6280   26.6560    7.2930 C   0  0  0  0  0  0  0  0  0  0  0  0
    4.3990   27.3140    6.0420 C   0  0  0  0  0  0  0  0  0  0  0  0
    3.7950   28.5970    6.0100 C   0  0  0  0  0  0  0  0  0  0  0  0
    5.2070   25.3980    7.4400 O   0  0  0  0  0  0  0  0  0  0  0  0
    4.4640   24.1590    7.6170 C   0  0  0  0  0  0  0  0  0  0  0  0
    5.3960   22.9350    7.6620 C   0  0  0  0  0  0  0  0  0  0  0  0
    4.7670   21.5370    7.4440 C   0  0  0  0  0  0  0  0  0  0  0  0
    5.6170   20.3410    7.7610 N   0  0  0  0  0  0  0  0  0  0  0  0
    6.4420   19.8810    6.6120 C   0  0  0  0  0  0  0  0  0  0  0  0
    4.8050   19.2050    8.2910 C   0  0  0  0  0  0  0  0  0  0  0  0
    6.2510   22.9720    8.7540 O   0  0  0  0  0  0  0  0  0  0  0  0
   -3.8490   29.4590   10.5210 F   0  0  0  0  0  0  0  0  0  0  0  0
    0.9450   29.6210   11.5160 F   0  0  0  0  0  0  0  0  0  0  0  0
  1  2  4  0  0  0  0
  1  6  4  0  0  0  0
  2  3  4  0  0  0  0
  3  7  1  0  0  0  0
  3  4  4  0  0  0  0
  4  5  4  0  0  0  0
  5  6  4  0  0  0  0
  5 14  1  0  0  0  0
  7  8  1  0  0  0  0
  8 13  4  0  0  0  0
  8  9  4  0  0  0  0
  9 29  1  0  0  0  0
  9 10  4  0  0  0  0
 10 11  4  0  0  0  0
 11 12  4  0  0  0  0
 12 13  4  0  0  0  0
 13 30  1  0  0  0  0
 14 15  1  0  0  0  0
 15 16  4  0  0  0  0
 16 17  4  0  0  0  0
 17 18  4  0  0  0  0
 18 19  4  0  0  0  0
 18 21  1  0  0  0  0
 15 20  4  0  0  0  0
 19 20  4  0  0  0  0
 21 22  1  0  0  0  0
 22 23  1  0  0  0  0
 23 24  1  0  0  0  0
 23 28  1  0  0  0  0
 24 25  1  0  0  0  0
 25 26  1  0  0  0  0
 25 27  1  0  0  0  0
M  END
$$$$
